OPT_V8/Brussels_test_1203-1157/powerflow_results_t5.txt
Pandapower Network Debug Info
==================================================

BUS:
       vm_pu  va_degree      p_mw    q_mvar
0   0.992973   0.049933  0.001177  0.000828
1   0.988567   0.081964  0.001765  0.001655
2   0.984625   0.116483  0.002353  0.002483
3   0.989245   0.089551  0.002942  0.003311
4   0.989506   0.115467  0.003530  0.004139
5   0.991908   0.065736  0.004118  0.004966
6   0.990099   0.051857  0.001412  0.000828
7   0.997462  -0.000540  0.002118  0.001655
8   0.997817   0.017584  0.002589  0.002483
9   0.999883  -0.000382  0.011767  0.008277
10  0.999869  -0.000472  0.012944  0.007450
11  0.999858  -0.000525  0.014120  0.009105
12  0.999766  -0.000788  0.011767  0.004966
13  0.999737  -0.000929  0.014120  0.008277
14  0.999747  -0.000852  0.015297  0.009933
15  0.999928  -0.000140  0.000000  0.000000
16  0.999928  -0.000135  0.000000  0.000000
17  0.999771  -0.000704  0.000000  0.000000
18  0.999771  -0.000696  0.000000  0.000000
19  1.000000   0.000000 -0.047203 -0.038200
20  1.000000   0.000005  0.000000  0.000000
21  1.000000   0.000000 -0.055093 -0.042343
22  1.000000   0.000006  0.000000  0.000000
--------------------------------------------------

LINE:
    p_from_mw  q_from_mvar   p_to_mw  q_to_mvar         pl_mw       ql_mvar  i_from_ka   i_to_ka      i_ka  vm_from_pu  va_from_degree  vm_to_pu  va_to_degree  loading_percent
0    0.047193     0.034200 -0.047190  -0.034197  3.322578e-06  2.590669e-06   0.002243  0.002243  0.002243    1.000000        0.000005  0.999928     -0.000140         0.975346
1    0.055083     0.038343 -0.055071  -0.038334  1.211612e-05  9.447137e-06   0.002583  0.002583  0.002583    1.000000        0.000006  0.999771     -0.000704         1.123147
2    0.038833     0.024834 -0.038831  -0.024833  1.643249e-06  1.281268e-06   0.001774  0.001774  0.001774    0.999928       -0.000140  0.999883     -0.000382         0.771441
3    0.011767     0.004967 -0.011767  -0.004966  5.643895e-08  4.400638e-08   0.000492  0.000492  0.000492    0.999771       -0.000704  0.999766     -0.000788         0.213788
4    0.029418     0.018211 -0.029417  -0.018211  6.548450e-07  5.105934e-07   0.001332  0.001332  0.001332    0.999771       -0.000704  0.999747     -0.000852         0.579133
5    0.008347     0.008364 -0.008282  -0.008313  6.531442e-05  5.092673e-05   0.017057  0.017057  0.017057    0.999928       -0.000135  0.992973      0.049933         7.415883
6    0.005583     0.005836 -0.005533  -0.005796  5.062871e-05  3.947604e-05   0.011660  0.011660  0.011660    0.999771       -0.000696  0.991908      0.065736         5.069560
7    0.002123     0.001659 -0.002118  -0.001655  4.907326e-06  3.826323e-06   0.003890  0.003890  0.003890    0.999771       -0.000696  0.997462     -0.000540         1.691324
8    0.006170     0.006662 -0.006156  -0.006651  1.418171e-05  1.105771e-05   0.013109  0.013109  0.013109    0.999771       -0.000696  0.997817      0.017584         5.699419
9   -0.027064    -0.016555  0.027064   0.016555  3.481718e-07  2.714753e-07   0.001221  0.001221  0.001221    0.999869       -0.000472  0.999883     -0.000382         0.530995
10  -0.014120    -0.009105  0.014120   0.009105  1.380963e-07  1.076760e-07   0.000647  0.000647  0.000647    0.999858       -0.000525  0.999869     -0.000472         0.281208
11   0.014120     0.008278 -0.014120  -0.008277  1.310891e-07  1.022124e-07   0.000630  0.000630  0.000630    0.999747       -0.000852  0.999737     -0.000929         0.273980
12  -0.004129    -0.004147  0.004150   0.004163  2.073525e-05  1.616761e-05   0.008545  0.008545  0.008545    0.988567        0.081964  0.992973      0.049933         3.715206
13  -0.002942    -0.003311  0.002955   0.003321  1.338390e-05  1.043564e-05   0.006462  0.006462  0.006462    0.989245        0.089551  0.992973      0.049933         2.809682
14  -0.002353    -0.002483  0.002364   0.002492  1.092141e-05  8.515602e-06   0.005015  0.005015  0.005015    0.984625        0.116483  0.988567      0.081964         2.180540
15   0.003567     0.004167 -0.003530  -0.004139  3.677207e-05  2.867179e-05   0.007935  0.007935  0.007935    0.997817        0.017584  0.989506      0.115467         3.449922
16  -0.001412    -0.000828  0.001414   0.000830  2.379265e-06  1.855152e-06   0.002386  0.002386  0.002386    0.990099        0.051857  0.991908      0.065736         1.037428
--------------------------------------------------

TRAFO:
    p_hv_mw  q_hv_mvar   p_lv_mw  q_lv_mvar    pl_mw   ql_mvar   i_hv_ka   i_lv_ka  vm_hv_pu  va_hv_degree  vm_lv_pu  va_lv_degree  loading_percent
0  0.008357   0.009363 -0.008347  -0.008364  0.00001  0.001000  0.000483  0.017057  0.999928     -0.000140  0.999928     -0.000135         0.125514
1  0.013886   0.015156 -0.013876  -0.014157  0.00001  0.000999  0.000791  0.028619  0.999771     -0.000704  0.999771     -0.000696         0.205603
2  0.047203   0.038200 -0.047193  -0.034200  0.00001  0.004000  0.000501  0.002243  1.000000      0.000000  1.000000      0.000005         0.151810
3  0.055093   0.042343 -0.055083  -0.038343  0.00001  0.004000  0.000573  0.002583  1.000000      0.000000  1.000000      0.000006         0.173713
--------------------------------------------------
